<?xml version="1.0" encoding="UTF-8"?>

<!-- generated on 2026-03-18 22:26:06 by Eclipse SUMO netconvert Version 1.21.0
<netconvertConfiguration xmlns:xsi="http://www.w3.org/2001/XMLSchema-instance" xsi:noNamespaceSchemaLocation="http://sumo.dlr.de/xsd/netconvertConfiguration.xsd">

    <input>
        <sumo-net-file value="curved_road.net.xml"/>
    </input>

    <output>
        <output-file value="curved_map.xodr"/>
    </output>

    <processing>
        <geometry.min-radius.fix.railways value="false"/>
        <geometry.max-grade.fix value="false"/>
        <offset.disable-normalization value="true"/>
        <lefthand value="0"/>
    </processing>

    <junctions>
        <no-turnarounds value="true"/>
        <junctions.corner-detail value="5"/>
        <junctions.limit-turn-speed value="5.50"/>
        <rectangular-lane-cut value="0"/>
    </junctions>

    <pedestrian>
        <walkingareas value="0"/>
    </pedestrian>

</netconvertConfiguration>
-->

<net version="1.20" junctionCornerDetail="5" limitTurnSpeed="5.50" xmlns:xsi="http://www.w3.org/2001/XMLSchema-instance" xsi:noNamespaceSchemaLocation="http://sumo.dlr.de/xsd/net_file.xsd">

    <location netOffset="0.00,0.00" convBoundary="-340.35,-12.17,-230.79,79.59" origBoundary="-10000000000.00,-10000000000.00,10000000000.00,10000000000.00" projParameter="!"/>

    <edge id=":J100_0" function="internal">
        <lane id=":J100_0_0" index="0" speed="4.18" length="1.28" shape="-307.30,-6.05 -307.54,-6.26 -307.82,-6.41 -308.12,-6.50 -308.44,-6.53"/>
        <lane id=":J100_0_1" index="1" speed="6.61" length="3.84" shape="-305.00,-8.28 -305.75,-8.91 -306.57,-9.37 -307.47,-9.64 -308.44,-9.73"/>
    </edge>
    <edge id=":J101_0" function="internal">
        <lane id=":J101_0_0" index="0" speed="13.89" length="0.68" shape="-311.23,-6.53 -311.33,-6.53 -311.40,-6.53 -311.47,-6.51 -311.57,-6.49"/>
        <lane id=":J101_0_1" index="1" speed="13.89" length="0.68" shape="-311.23,-9.73 -311.53,-9.73 -311.74,-9.72 -311.94,-9.68 -312.24,-9.62"/>
    </edge>
    <edge id=":J102_0" function="internal">
        <lane id=":J102_0_0" index="0" speed="13.89" length="1.52" shape="-319.21,-4.86 -319.42,-4.81 -319.57,-4.76 -319.70,-4.67 -319.88,-4.54"/>
        <lane id=":J102_0_1" index="1" speed="8.03" length="1.52" shape="-319.88,-7.99 -320.53,-7.84 -320.97,-7.68 -321.37,-7.44 -321.89,-7.02"/>
    </edge>
    <edge id=":J103_0" function="internal">
        <lane id=":J103_0_0" index="0" speed="13.89" length="0.12" shape="-322.33,-2.55 -322.47,-2.44"/>
        <lane id=":J103_0_1" index="1" speed="13.89" length="0.12" shape="-324.34,-5.04 -324.39,-5.00"/>
    </edge>
    <edge id=":J105_0" function="internal">
        <lane id=":J105_0_0" index="0" speed="4.11" length="1.43" shape="-326.76,0.77 -327.03,1.02 -327.22,1.30 -327.35,1.63 -327.40,1.99"/>
        <lane id=":J105_0_1" index="1" speed="6.47" length="4.28" shape="-328.67,-1.79 -329.48,-1.05 -330.07,-0.19 -330.44,0.79 -330.59,1.87"/>
    </edge>
    <edge id=":J106_0" function="internal">
        <lane id=":J106_0_0" index="0" speed="13.89" length="0.22" shape="-327.56,6.50 -327.59,6.82"/>
        <lane id=":J106_0_1" index="1" speed="13.89" length="0.22" shape="-330.76,6.38 -330.77,6.49"/>
    </edge>
    <edge id=":J107_0" function="internal">
        <lane id=":J107_0_0" index="0" speed="13.89" length="0.25" shape="-328.40,14.57 -328.41,14.69"/>
        <lane id=":J107_0_1" index="1" speed="13.89" length="0.25" shape="-331.58,14.23 -331.61,14.60"/>
    </edge>
    <edge id=":J108_0" function="internal">
        <lane id=":J108_0_0" index="0" speed="4.11" length="1.42" shape="-328.60,21.50 -328.57,21.87 -328.47,22.20 -328.30,22.49 -328.05,22.76"/>
        <lane id=":J108_0_1" index="1" speed="6.48" length="4.25" shape="-331.80,21.42 -331.72,22.50 -331.41,23.49 -330.89,24.38 -330.14,25.18"/>
    </edge>
    <edge id=":J109_0" function="internal">
        <lane id=":J109_0_0" index="0" speed="13.89" length="1.97" shape="-327.65,23.10 -327.43,23.28 -327.26,23.39 -327.06,23.44 -326.78,23.48"/>
        <lane id=":J109_0_1" index="1" speed="7.16" length="1.97" shape="-329.75,25.52 -329.08,26.07 -328.56,26.38 -327.98,26.55 -327.11,26.66"/>
    </edge>
    <edge id=":J110_0" function="internal">
        <lane id=":J110_0_0" index="0" speed="13.89" length="1.00" shape="-323.18,23.86 -323.04,23.87 -322.93,23.88 -322.83,23.86 -322.69,23.84"/>
        <lane id=":J110_0_1" index="1" speed="12.99" length="1.00" shape="-323.52,27.04 -323.08,27.09 -322.77,27.09 -322.47,27.05 -322.03,26.97"/>
    </edge>
    <edge id=":J111_0" function="internal">
        <lane id=":J111_0_0" index="0" speed="13.89" length="0.66" shape="-318.30,22.92 -318.20,22.90 -318.14,22.88 -318.07,22.86 -317.99,22.82"/>
        <lane id=":J111_0_1" index="1" speed="13.89" length="0.66" shape="-317.64,26.05 -317.36,25.99 -317.16,25.94 -316.97,25.87 -316.71,25.75"/>
    </edge>
    <edge id=":J112_0" function="internal">
        <lane id=":J112_0_0" index="0" speed="13.89" length="0.29" shape="-313.28,20.77 -313.05,20.66"/>
        <lane id=":J112_0_1" index="1" speed="13.89" length="0.29" shape="-312.01,23.70 -311.72,23.57"/>
    </edge>
    <edge id=":J113_0" function="internal">
        <lane id=":J113_0_0" index="0" speed="6.32" length="4.91" shape="-308.29,18.49 -307.08,18.10 -305.90,18.03 -304.75,18.29 -303.62,18.88"/>
        <lane id=":J113_0_1" index="1" speed="4.03" length="1.64" shape="-306.96,21.40 -306.56,21.27 -306.17,21.25 -305.78,21.34 -305.41,21.53"/>
    </edge>
    <edge id=":J114_0" function="internal">
        <lane id=":J114_0_0" index="0" speed="13.89" length="0.75" shape="-297.80,22.80 -297.71,22.86 -297.64,22.90 -297.57,22.93 -297.47,22.97"/>
        <lane id=":J114_0_1" index="1" speed="13.89" length="0.75" shape="-299.59,25.45 -299.31,25.64 -299.11,25.75 -298.90,25.85 -298.59,25.97"/>
    </edge>
    <edge id=":J115_0" function="internal">
        <lane id=":J115_0_0" index="0" speed="6.83" length="2.33" shape="-292.57,24.80 -291.62,25.19 -291.01,25.58 -290.54,26.13 -290.03,27.02"/>
        <lane id=":J115_0_1" index="1" speed="4.30" length="2.33" shape="-293.69,27.80 -293.37,27.93 -293.17,28.06 -293.01,28.24 -292.84,28.54"/>
    </edge>
    <edge id=":J116_0" function="internal">
        <lane id=":J116_0_0" index="0" speed="7.80" length="1.60" shape="-287.23,32.20 -286.90,32.83 -286.73,33.29 -286.66,33.77 -286.65,34.48"/>
        <lane id=":J116_0_1" index="1" speed="13.89" length="1.60" shape="-290.04,33.72 -289.93,33.93 -289.88,34.08 -289.85,34.24 -289.85,34.48"/>
    </edge>
    <edge id=":J117_0" function="internal">
        <lane id=":J117_0_0" index="0" speed="7.02" length="2.10" shape="-286.65,40.23 -286.67,41.16 -286.79,41.80 -287.08,42.38 -287.62,43.13"/>
        <lane id=":J117_0_1" index="1" speed="4.40" length="2.10" shape="-289.85,40.23 -289.86,40.54 -289.90,40.75 -289.99,40.95 -290.17,41.20"/>
    </edge>
    <edge id=":J118_0" function="internal">
        <lane id=":J118_0_0" index="0" speed="9.92" length="1.17" shape="-291.12,47.75 -291.44,48.16 -291.69,48.42 -291.97,48.64 -292.41,48.92"/>
        <lane id=":J118_0_1" index="1" speed="13.89" length="1.17" shape="-293.67,45.82 -293.78,45.95 -293.86,46.04 -293.96,46.11 -294.10,46.21"/>
    </edge>
    <edge id=":J119_0" function="internal">
        <lane id=":J119_0_0" index="0" speed="10.79" length="1.10" shape="-298.02,52.42 -298.44,52.68 -298.74,52.83 -299.06,52.93 -299.54,53.04"/>
        <lane id=":J119_0_1" index="1" speed="13.89" length="1.10" shape="-299.71,49.71 -299.85,49.79 -299.95,49.84 -300.06,49.88 -300.22,49.91"/>
    </edge>
    <edge id=":J120_0" function="internal">
        <lane id=":J120_0_0" index="0" speed="6.81" length="2.36" shape="-307.24,54.72 -308.26,54.91 -308.99,54.92 -309.69,54.70 -310.61,54.22"/>
        <lane id=":J120_0_1" index="1" speed="4.29" length="2.36" shape="-307.92,51.59 -308.26,51.66 -308.50,51.66 -308.74,51.59 -309.04,51.43"/>
    </edge>
    <edge id=":J121_0" function="internal">
        <lane id=":J121_0_0" index="0" speed="13.89" length="0.58" shape="-315.84,51.28 -315.92,51.24 -315.97,51.22 -316.03,51.19 -316.11,51.17"/>
        <lane id=":J121_0_1" index="1" speed="13.89" length="0.58" shape="-314.28,48.49 -314.51,48.37 -314.67,48.29 -314.83,48.22 -315.08,48.14"/>
    </edge>
    <edge id=":J122_0" function="internal">
        <lane id=":J122_0_0" index="0" speed="13.89" length="0.49" shape="-322.14,49.11 -322.34,49.04 -322.48,48.99 -322.61,48.93 -322.81,48.83"/>
        <lane id=":J122_0_1" index="1" speed="13.89" length="0.49" shape="-321.11,46.08 -321.17,46.06 -321.22,46.04 -321.26,46.02 -321.33,45.99"/>
    </edge>
    <edge id=":J123_0" function="internal">
        <lane id=":J123_0_0" index="0" speed="4.17" length="1.29" shape="-326.83,46.73 -327.14,46.61 -327.45,46.55 -327.77,46.56 -328.09,46.63"/>
        <lane id=":J123_0_1" index="1" speed="6.59" length="3.87" shape="-325.36,43.89 -326.27,43.52 -327.20,43.35 -328.15,43.37 -329.11,43.60"/>
    </edge>
    <edge id=":J124_0" function="internal">
        <lane id=":J124_0_0" index="0" speed="13.89" length="1.89" shape="-331.93,47.94 -332.20,48.03 -332.37,48.12 -332.51,48.26 -332.69,48.47"/>
        <lane id=":J124_0_1" index="1" speed="7.26" length="1.89" shape="-332.96,44.91 -333.75,45.19 -334.26,45.47 -334.69,45.86 -335.22,46.51"/>
    </edge>
    <edge id=":J125_0" function="internal">
        <lane id=":J125_0_0" index="0" speed="13.89" length="1.81" shape="-334.72,51.09 -334.88,51.31 -334.97,51.47 -335.01,51.65 -335.05,51.92"/>
        <lane id=":J125_0_1" index="1" speed="7.38" length="1.81" shape="-337.25,49.13 -337.73,49.78 -337.99,50.27 -338.14,50.81 -338.23,51.60"/>
    </edge>
    <edge id=":J126_0" function="internal">
        <lane id=":J126_0_0" index="0" speed="13.89" length="1.47" shape="-335.43,55.75 -335.44,55.97 -335.44,56.12 -335.41,56.27 -335.33,56.47"/>
        <lane id=":J126_0_1" index="1" speed="8.17" length="1.47" shape="-338.61,55.44 -338.67,56.09 -338.65,56.54 -338.55,56.98 -338.33,57.59"/>
    </edge>
    <edge id=":J127_0" function="internal">
        <lane id=":J127_0_0" index="0" speed="12.54" length="1.02" shape="-333.60,61.10 -333.45,61.52 -333.37,61.82 -333.33,62.13 -333.30,62.58"/>
        <lane id=":J127_0_1" index="1" speed="13.89" length="1.02" shape="-336.60,62.22 -336.55,62.36 -336.52,62.46 -336.51,62.56 -336.50,62.71"/>
    </edge>
    <edge id=":J128_0" function="internal">
        <lane id=":J128_0_0" index="0" speed="13.89" length="0.21" shape="-333.46,68.70 -333.45,68.81"/>
        <lane id=":J128_0_1" index="1" speed="13.89" length="0.21" shape="-336.66,68.91 -336.63,69.23"/>
    </edge>
    <edge id=":J129_0" function="internal">
        <lane id=":J129_0_0" index="0" speed="13.89" length="0.27" shape="-332.12,72.35 -331.95,72.51"/>
        <lane id=":J129_0_1" index="1" speed="13.89" length="0.27" shape="-334.32,74.67 -334.10,74.88"/>
    </edge>
    <edge id=":J130_0" function="internal">
        <lane id=":J130_0_0" index="0" speed="13.89" length="1.71" shape="-329.60,74.55 -329.39,74.68 -329.22,74.70 -329.03,74.67 -328.77,74.63"/>
        <lane id=":J130_0_1" index="1" speed="6.52" length="1.71" shape="-330.91,77.55 -330.25,77.87 -329.74,77.96 -329.20,77.91 -328.45,77.81"/>
    </edge>
    <edge id=":J131_0" function="internal">
        <lane id=":J131_0_0" index="0" speed="13.89" length="1.35" shape="-326.49,74.39 -326.29,74.37 -326.16,74.34 -326.03,74.29 -325.86,74.19"/>
        <lane id=":J131_0_1" index="1" speed="8.67" length="1.35" shape="-326.17,77.58 -325.57,77.51 -325.17,77.42 -324.79,77.26 -324.27,76.96"/>
    </edge>
    <edge id=":J133_0" function="internal">
        <lane id=":J133_0_0" index="0" speed="13.89" length="0.26" shape="-274.50,58.01 -274.10,57.96"/>
        <lane id=":J133_0_1" index="1" speed="13.89" length="0.26" shape="-273.96,61.16 -273.83,61.15"/>
    </edge>
    <edge id=":J134_0" function="internal">
        <lane id=":J134_0_0" index="0" speed="7.04" length="2.09" shape="-267.14,57.36 -266.22,57.30 -265.58,57.36 -264.98,57.60 -264.19,58.07"/>
        <lane id=":J134_0_1" index="1" speed="4.41" length="2.09" shape="-266.87,60.55 -266.56,60.53 -266.35,60.55 -266.15,60.63 -265.88,60.78"/>
    </edge>
    <edge id=":J49_0" function="internal">
        <lane id=":J49_0_0" index="0" speed="13.89" length="0.19" shape="-319.48,70.53 -319.23,70.40"/>
        <lane id=":J49_0_1" index="1" speed="13.89" length="0.19" shape="-317.89,73.30 -317.80,73.26"/>
    </edge>
    <edge id=":J50_0" function="internal">
        <lane id=":J50_0_0" index="0" speed="13.89" length="0.97" shape="-312.78,67.18 -312.40,66.99 -312.12,66.88 -311.84,66.81 -311.42,66.73"/>
        <lane id=":J50_0_1" index="1" speed="13.89" length="0.97" shape="-311.35,70.04 -311.23,69.98 -311.13,69.94 -311.04,69.92 -310.90,69.89"/>
    </edge>
    <edge id=":J51_0" function="internal">
        <lane id=":J51_0_0" index="0" speed="13.89" length="0.88" shape="-303.72,65.47 -303.33,65.41 -303.06,65.39 -302.79,65.40 -302.40,65.44"/>
        <lane id=":J51_0_1" index="1" speed="13.89" length="0.88" shape="-303.20,68.63 -303.07,68.61 -302.98,68.60 -302.89,68.61 -302.76,68.62"/>
    </edge>
    <edge id=":J52_0" function="internal">
        <lane id=":J52_0_0" index="0" speed="4.31" length="2.30" shape="-298.59,65.87 -298.25,65.90 -298.01,65.88 -297.79,65.79 -297.51,65.61"/>
        <lane id=":J52_0_1" index="1" speed="6.85" length="2.30" shape="-298.95,69.05 -297.94,69.14 -297.23,69.08 -296.57,68.80 -295.72,68.26"/>
    </edge>
    <edge id=":J53_0" function="internal">
        <lane id=":J53_0_0" index="0" speed="13.89" length="1.25" shape="-296.16,64.70 -296.01,64.59 -295.91,64.51 -295.83,64.41 -295.73,64.26"/>
        <lane id=":J53_0_1" index="1" speed="9.24" length="1.25" shape="-294.37,67.35 -293.91,67.03 -293.62,66.79 -293.38,66.49 -293.06,66.03"/>
    </edge>
    <edge id=":J54_0" function="internal">
        <lane id=":J54_0_0" index="0" speed="6.33" length="4.88" shape="-293.35,60.68 -292.53,59.71 -291.57,59.04 -290.46,58.64 -289.20,58.54"/>
        <lane id=":J54_0_1" index="1" speed="4.04" length="1.63" shape="-290.68,62.45 -290.41,62.13 -290.09,61.91 -289.72,61.77 -289.30,61.74"/>
    </edge>
    <edge id=":J55_0" function="internal">
        <lane id=":J55_0_0" index="0" speed="13.89" length="0.27" shape="-284.82,58.68 -284.51,58.69"/>
        <lane id=":J55_0_1" index="1" speed="13.89" length="0.27" shape="-284.92,61.88 -284.68,61.89"/>
    </edge>
    <edge id=":J56_0" function="internal">
        <lane id=":J56_0_0" index="0" speed="13.89" length="0.71" shape="-280.14,58.93 -280.03,58.93 -279.96,58.93 -279.89,58.93 -279.78,58.91"/>
        <lane id=":J56_0_1" index="1" speed="13.89" length="0.71" shape="-280.31,62.12 -279.99,62.14 -279.77,62.14 -279.56,62.11 -279.24,62.06"/>
    </edge>
    <edge id=":J61_0" function="internal">
        <lane id=":J61_0_0" index="0" speed="13.89" length="0.31" shape="-256.41,62.92 -256.29,62.99 -256.21,63.04 -256.13,63.10 -256.02,63.19"/>
        <lane id=":J61_0_1" index="1" speed="13.89" length="0.31" shape="-258.10,65.63 -258.06,65.66 -258.04,65.67 -258.01,65.69 -257.97,65.72"/>
    </edge>
    <edge id=":J62_0" function="internal">
        <lane id=":J62_0_0" index="0" speed="4.05" length="1.59" shape="-255.12,63.88 -254.77,64.09 -254.41,64.20 -254.02,64.21 -253.62,64.12"/>
        <lane id=":J62_0_1" index="1" speed="6.35" length="4.76" shape="-257.08,66.41 -256.02,67.05 -254.92,67.39 -253.77,67.42 -252.57,67.14"/>
    </edge>
    <edge id=":J63_0" function="internal">
        <lane id=":J63_0_0" index="0" speed="13.89" length="1.91" shape="-252.69,63.80 -252.43,63.70 -252.26,63.60 -252.12,63.47 -251.94,63.25"/>
        <lane id=":J63_0_1" index="1" speed="7.24" length="1.91" shape="-251.64,66.82 -250.85,66.52 -250.33,66.24 -249.91,65.84 -249.39,65.18"/>
    </edge>
    <edge id=":J64_0" function="internal">
        <lane id=":J64_0_0" index="0" speed="13.89" length="0.61" shape="-249.14,59.54 -249.09,59.47 -249.05,59.41 -249.02,59.36 -248.98,59.28"/>
        <lane id=":J64_0_1" index="1" speed="13.89" length="0.61" shape="-246.59,61.47 -246.42,61.25 -246.32,61.09 -246.23,60.93 -246.11,60.69"/>
    </edge>
    <edge id=":J65_0" function="internal">
        <lane id=":J65_0_0" index="0" speed="4.19" length="1.27" shape="-247.07,55.37 -246.95,55.07 -246.90,54.77 -246.92,54.45 -247.00,54.14"/>
        <lane id=":J65_0_1" index="1" speed="6.62" length="3.81" shape="-244.20,56.78 -243.85,55.87 -243.70,54.95 -243.74,54.02 -243.98,53.08"/>
    </edge>
    <edge id=":J66_0" function="internal">
        <lane id=":J66_0_0" index="0" speed="7.22" length="1.92" shape="-247.93,51.48 -248.19,50.67 -248.29,50.09 -248.24,49.49 -248.04,48.67"/>
        <lane id=":J66_0_1" index="1" speed="13.89" length="1.92" shape="-244.91,50.42 -245.00,50.15 -245.03,49.96 -245.01,49.76 -244.95,49.48"/>
    </edge>
    <edge id=":J67_0" function="internal">
        <lane id=":J67_0_0" index="0" speed="4.00" length="1.77" shape="-247.64,47.15 -247.58,46.69 -247.64,46.27 -247.82,45.89 -248.13,45.55"/>
        <lane id=":J67_0_1" index="1" speed="6.26" length="5.31" shape="-244.55,47.96 -244.36,46.59 -244.54,45.34 -245.08,44.19 -246.00,43.15"/>
    </edge>
    <edge id=":J68_0" function="internal">
        <lane id=":J68_0_0" index="0" speed="4.29" length="2.36" shape="-248.41,45.29 -248.68,45.07 -248.89,44.95 -249.13,44.90 -249.47,44.89"/>
        <lane id=":J68_0_1" index="1" speed="6.81" length="2.36" shape="-246.28,42.90 -247.08,42.23 -247.72,41.87 -248.43,41.72 -249.47,41.69"/>
    </edge>
    <edge id=":J69_0" function="internal">
        <lane id=":J69_0_0" index="0" speed="13.89" length="0.86" shape="-253.61,44.89 -253.73,44.89 -253.82,44.90 -253.91,44.91 -254.03,44.95"/>
        <lane id=":J69_0_1" index="1" speed="13.89" length="0.86" shape="-253.61,41.69 -253.99,41.69 -254.25,41.71 -254.51,41.76 -254.88,41.86"/>
    </edge>
    <edge id=":J70_0" function="internal">
        <lane id=":J70_0_0" index="0" speed="7.52" length="1.73" shape="-260.34,46.68 -261.08,46.87 -261.61,46.93 -262.14,46.87 -262.88,46.68"/>
        <lane id=":J70_0_1" index="1" speed="13.89" length="1.73" shape="-261.19,43.59 -261.43,43.66 -261.61,43.68 -261.79,43.66 -262.03,43.59"/>
    </edge>
    <edge id=":J71_0" function="internal">
        <lane id=":J71_0_0" index="0" speed="6.37" length="4.68" shape="-270.03,44.72 -271.15,44.28 -272.07,43.62 -272.79,42.74 -273.30,41.65"/>
        <lane id=":J71_0_1" index="1" speed="4.06" length="1.56" shape="-269.18,41.63 -269.56,41.49 -269.86,41.27 -270.10,40.97 -270.27,40.61"/>
    </edge>
    <edge id=":J72_0" function="internal">
        <lane id=":J72_0_0" index="0" speed="7.57" length="1.70" shape="-274.84,37.16 -275.07,36.44 -275.17,35.92 -275.14,35.40 -275.01,34.66"/>
        <lane id=":J72_0_1" index="1" speed="13.89" length="1.70" shape="-271.81,36.12 -271.89,35.88 -271.92,35.71 -271.91,35.53 -271.87,35.29"/>
    </edge>
    <edge id=":J73_0" function="internal">
        <lane id=":J73_0_0" index="0" speed="13.89" length="0.42" shape="-273.89,29.06 -273.85,28.87 -273.82,28.75 -273.78,28.62 -273.72,28.45"/>
        <lane id=":J73_0_1" index="1" speed="13.89" length="0.42" shape="-270.75,29.69 -270.74,29.62 -270.73,29.58 -270.71,29.54 -270.69,29.48"/>
    </edge>
    <edge id=":J74_0" function="internal">
        <lane id=":J74_0_0" index="0" speed="6.90" length="2.23" shape="-271.90,23.13 -271.56,22.21 -271.21,21.61 -270.71,21.14 -269.88,20.60"/>
        <lane id=":J74_0_1" index="1" speed="4.34" length="2.23" shape="-268.87,24.16 -268.76,23.86 -268.64,23.66 -268.48,23.50 -268.20,23.32"/>
    </edge>
    <edge id=":J75_0" function="internal">
        <lane id=":J75_0_0" index="0" speed="13.35" length="0.99" shape="-265.11,17.65 -264.74,17.42 -264.47,17.28 -264.18,17.18 -263.75,17.07"/>
        <lane id=":J75_0_1" index="1" speed="13.89" length="0.99" shape="-263.43,20.37 -263.31,20.29 -263.22,20.25 -263.12,20.21 -262.98,20.18"/>
    </edge>
    <edge id=":J76_0" function="internal">
        <lane id=":J76_0_0" index="0" speed="7.44" length="1.78" shape="-258.71,15.81 -257.95,15.64 -257.40,15.59 -256.86,15.67 -256.11,15.89"/>
        <lane id=":J76_0_1" index="1" speed="13.89" length="1.78" shape="-257.94,18.92 -257.68,18.86 -257.50,18.84 -257.32,18.87 -257.07,18.94"/>
    </edge>
    <edge id=":J77_0" function="internal">
        <lane id=":J77_0_0" index="0" speed="13.89" length="0.75" shape="-251.21,17.43 -250.90,17.53 -250.68,17.61 -250.48,17.72 -250.19,17.89"/>
        <lane id=":J77_0_1" index="1" speed="13.89" length="0.75" shape="-252.17,20.48 -252.07,20.52 -251.99,20.54 -251.93,20.58 -251.83,20.64"/>
    </edge>
    <edge id=":J78_0" function="internal">
        <lane id=":J78_0_0" index="0" speed="13.89" length="0.77" shape="-245.67,20.58 -245.57,20.64 -245.50,20.67 -245.43,20.70 -245.32,20.74"/>
        <lane id=":J78_0_1" index="1" speed="13.89" length="0.77" shape="-247.31,23.33 -247.01,23.50 -246.80,23.61 -246.58,23.69 -246.25,23.80"/>
    </edge>
    <edge id=":J79_0" function="internal">
        <lane id=":J79_0_0" index="0" speed="4.27" length="2.41" shape="-243.40,21.32 -243.06,21.42 -242.81,21.44 -242.57,21.38 -242.24,21.24"/>
        <lane id=":J79_0_1" index="1" speed="6.77" length="2.41" shape="-244.33,24.38 -243.31,24.66 -242.56,24.72 -241.83,24.55 -240.86,24.12"/>
    </edge>
    <edge id=":J80_0" function="internal">
        <lane id=":J80_0_0" index="0" speed="4.26" length="2.44" shape="-240.31,20.31 -239.99,20.15 -239.79,20.00 -239.65,19.79 -239.51,19.46"/>
        <lane id=":J80_0_1" index="1" speed="6.76" length="2.44" shape="-238.93,23.20 -237.98,22.71 -237.38,22.24 -236.96,21.62 -236.54,20.63"/>
    </edge>
    <edge id=":J81_0" function="internal">
        <lane id=":J81_0_0" index="0" speed="13.89" length="0.25" shape="-238.41,16.65 -238.34,16.48"/>
        <lane id=":J81_0_1" index="1" speed="13.89" length="0.25" shape="-235.43,17.82 -235.32,17.53"/>
    </edge>
    <edge id=":J82_0" function="internal">
        <lane id=":J82_0_0" index="0" speed="13.89" length="0.84" shape="-236.16,10.18 -236.12,10.06 -236.10,9.98 -236.09,9.89 -236.08,9.77"/>
        <lane id=":J82_0_1" index="1" speed="13.89" length="0.84" shape="-233.14,11.23 -233.02,10.87 -232.95,10.62 -232.92,10.37 -232.89,9.99"/>
    </edge>
    <edge id=":J83_0" function="internal">
        <lane id=":J83_0_0" index="0" speed="4.39" length="2.11" shape="-235.73,4.78 -235.72,4.47 -235.74,4.25 -235.82,4.05 -235.99,3.79"/>
        <lane id=":J83_0_1" index="1" speed="7.01" length="2.11" shape="-232.54,5.00 -232.49,4.07 -232.57,3.43 -232.82,2.82 -233.31,2.03"/>
    </edge>
    <edge id=":J84_0" function="internal">
        <lane id=":J84_0_0" index="0" speed="13.89" length="0.16" shape="-238.02,0.70 -238.15,0.49"/>
        <lane id=":J84_0_1" index="1" speed="13.89" length="0.16" shape="-235.35,-1.06 -235.39,-1.13"/>
    </edge>
    <edge id=":J86_0" function="internal">
        <lane id=":J86_0_0" index="0" speed="4.44" length="2.02" shape="-240.89,-4.18 -241.04,-4.43 -241.18,-4.59 -241.35,-4.71 -241.62,-4.83"/>
        <lane id=":J86_0_1" index="1" speed="7.10" length="2.02" shape="-238.13,-5.80 -238.59,-6.56 -239.00,-7.03 -239.52,-7.38 -240.33,-7.76"/>
    </edge>
    <edge id=":J87_0" function="internal">
        <lane id=":J87_0_0" index="0" speed="13.89" length="1.13" shape="-245.98,-6.76 -246.13,-6.83 -246.24,-6.86 -246.36,-6.88 -246.52,-6.89"/>
        <lane id=":J87_0_1" index="1" speed="10.40" length="1.13" shape="-244.69,-9.69 -245.15,-9.88 -245.48,-9.99 -245.82,-10.05 -246.32,-10.09"/>
    </edge>
    <edge id=":J88_0" function="internal">
        <lane id=":J88_0_0" index="0" speed="4.38" length="2.14" shape="-251.89,-7.24 -252.21,-7.25 -252.43,-7.22 -252.63,-7.14 -252.89,-6.97"/>
        <lane id=":J88_0_1" index="1" speed="6.98" length="2.14" shape="-251.69,-10.43 -252.63,-10.47 -253.29,-10.39 -253.89,-10.13 -254.69,-9.62"/>
    </edge>
    <edge id=":J89_0" function="internal">
        <lane id=":J89_0_0" index="0" speed="13.89" length="0.27" shape="-255.24,-5.38 -255.40,-5.26"/>
        <lane id=":J89_0_1" index="1" speed="13.89" length="0.27" shape="-257.03,-8.03 -257.32,-7.82"/>
    </edge>
    <edge id=":J90_0" function="internal">
        <lane id=":J90_0_0" index="0" speed="13.89" length="1.14" shape="-258.23,-3.13 -258.36,-3.03 -258.45,-2.95 -258.52,-2.86 -258.61,-2.72"/>
        <lane id=":J90_0_1" index="1" speed="10.29" length="1.14" shape="-260.15,-5.69 -260.55,-5.38 -260.81,-5.15 -261.03,-4.87 -261.30,-4.45"/>
    </edge>
    <edge id=":J91_0" function="internal">
        <lane id=":J91_0_0" index="0" speed="13.89" length="0.55" shape="-261.77,2.20 -261.90,2.40 -262.00,2.54 -262.11,2.66 -262.27,2.84"/>
        <lane id=":J91_0_1" index="1" speed="13.89" length="0.55" shape="-264.46,0.47 -264.51,0.53 -264.54,0.58 -264.58,0.62 -264.63,0.68"/>
    </edge>
    <edge id=":J92_0" function="internal">
        <lane id=":J92_0_0" index="0" speed="6.14" length="6.43" shape="-266.76,7.74 -268.07,8.84 -269.48,9.37 -270.98,9.33 -272.58,8.72"/>
        <lane id=":J92_0_1" index="1" speed="3.94" length="2.14" shape="-269.12,5.58 -269.56,5.95 -270.03,6.12 -270.53,6.11 -271.06,5.91"/>
    </edge>
    <edge id=":J93_0" function="internal">
        <lane id=":J93_0_0" index="0" speed="13.89" length="0.18" shape="-277.60,6.01 -277.68,5.97"/>
        <lane id=":J93_0_1" index="1" speed="13.89" length="0.18" shape="-276.08,3.19 -276.32,3.07"/>
    </edge>
    <edge id=":J94_0" function="internal">
        <lane id=":J94_0_0" index="0" speed="4.27" length="2.41" shape="-282.14,3.88 -282.46,3.74 -282.70,3.69 -282.95,3.71 -283.29,3.80"/>
        <lane id=":J94_0_1" index="1" speed="6.78" length="2.41" shape="-280.78,0.98 -281.75,0.56 -282.48,0.40 -283.23,0.46 -284.25,0.75"/>
    </edge>
    <edge id=":J95_0" function="internal">
        <lane id=":J95_0_0" index="0" speed="13.89" length="0.56" shape="-287.10,4.99 -287.18,5.02 -287.24,5.04 -287.29,5.06 -287.36,5.10"/>
        <lane id=":J95_0_1" index="1" speed="13.89" length="0.56" shape="-288.06,1.94 -288.30,2.02 -288.46,2.07 -288.61,2.15 -288.83,2.26"/>
    </edge>
    <edge id=":J97_0" function="internal">
        <lane id=":J97_0_0" index="0" speed="6.08" length="7.82" shape="-294.71,8.90 -296.74,9.61 -298.50,9.49 -299.99,8.55 -301.21,6.79"/>
        <lane id=":J97_0_1" index="1" speed="3.90" length="2.61" shape="-296.18,6.06 -296.86,6.30 -297.45,6.26 -297.94,5.94 -298.35,5.36"/>
    </edge>
    <edge id=":J98_0" function="internal">
        <lane id=":J98_0_0" index="0" speed="13.57" length="0.99" shape="-303.73,1.75 -303.93,1.35 -304.04,1.07 -304.11,0.78 -304.18,0.35"/>
        <lane id=":J98_0_1" index="1" speed="13.89" length="0.99" shape="-300.87,0.32 -300.94,0.18 -300.97,0.09 -301.00,-0.01 -301.02,-0.15"/>
    </edge>
    <edge id=":J99_0" function="internal">
        <lane id=":J99_0_0" index="0" speed="13.89" length="1.99" shape="-304.70,-2.96 -304.76,-3.25 -304.82,-3.45 -304.94,-3.61 -305.14,-3.83"/>
        <lane id=":J99_0_1" index="1" speed="7.14" length="1.99" shape="-301.54,-3.46 -301.70,-4.33 -301.90,-4.91 -302.25,-5.42 -302.84,-6.06"/>
    </edge>

    <edge id="E101" from="J103" to="J105" priority="-1">
        <lane id="E101_0" index="0" speed="13.89" length="5.35" shape="-322.47,-2.44 -326.76,0.77"/>
        <lane id="E101_1" index="1" speed="13.89" length="5.35" shape="-324.39,-5.00 -328.67,-1.79"/>
    </edge>
    <edge id="E102" from="J105" to="J106" priority="-1">
        <lane id="E102_0" index="0" speed="13.89" length="4.51" shape="-327.40,1.99 -327.56,6.50"/>
        <lane id="E102_1" index="1" speed="13.89" length="4.51" shape="-330.59,1.87 -330.76,6.38"/>
    </edge>
    <edge id="E103" from="J106" to="J107" priority="-1">
        <lane id="E103_0" index="0" speed="13.89" length="7.79" shape="-327.59,6.82 -328.40,14.57"/>
        <lane id="E103_1" index="1" speed="13.89" length="7.79" shape="-330.77,6.49 -331.58,14.23"/>
    </edge>
    <edge id="E104" from="J107" to="J108" priority="-1">
        <lane id="E104_0" index="0" speed="13.89" length="6.82" shape="-328.41,14.69 -328.60,21.50"/>
        <lane id="E104_1" index="1" speed="13.89" length="6.82" shape="-331.61,14.60 -331.80,21.42"/>
    </edge>
    <edge id="E105" from="J108" to="J109" priority="-1">
        <lane id="E105_0" index="0" speed="13.89" length="0.52" shape="-328.05,22.76 -327.65,23.10"/>
        <lane id="E105_1" index="1" speed="13.89" length="0.52" shape="-330.14,25.18 -329.75,25.52"/>
    </edge>
    <edge id="E106" from="J109" to="J110" priority="-1">
        <lane id="E106_0" index="0" speed="13.89" length="3.61" shape="-326.78,23.48 -323.18,23.86"/>
        <lane id="E106_1" index="1" speed="13.89" length="3.61" shape="-327.11,26.66 -323.52,27.04"/>
    </edge>
    <edge id="E107" from="J110" to="J111" priority="-1">
        <lane id="E107_0" index="0" speed="13.89" length="4.49" shape="-322.69,23.84 -318.30,22.92"/>
        <lane id="E107_1" index="1" speed="13.89" length="4.49" shape="-322.03,26.97 -317.64,26.05"/>
    </edge>
    <edge id="E108" from="J111" to="J112" priority="-1">
        <lane id="E108_0" index="0" speed="13.89" length="5.13" shape="-317.99,22.82 -313.28,20.77"/>
        <lane id="E108_1" index="1" speed="13.89" length="5.13" shape="-316.71,25.75 -312.01,23.70"/>
    </edge>
    <edge id="E109" from="J112" to="J113" priority="-1">
        <lane id="E109_0" index="0" speed="13.89" length="5.23" shape="-313.05,20.66 -308.29,18.49"/>
        <lane id="E109_1" index="1" speed="13.89" length="5.23" shape="-311.72,23.57 -306.96,21.40"/>
    </edge>
    <edge id="E110" from="J113" to="J114" priority="-1">
        <lane id="E110_0" index="0" speed="13.89" length="7.01" shape="-303.62,18.88 -297.80,22.80"/>
        <lane id="E110_1" index="1" speed="13.89" length="7.01" shape="-305.41,21.53 -299.59,25.45"/>
    </edge>