<?xml version="1.0" encoding="UTF-8"?>

<!-- generated on 2024-12-14 13:18:52 by Eclipse SUMO netconvert Version 1.21.0
<netconvertConfiguration xmlns:xsi="http://www.w3.org/2001/XMLSchema-instance" xsi:noNamespaceSchemaLocation="http://sumo.dlr.de/xsd/netconvertConfiguration.xsd">

    <input>
        <sumo-net-file value="test1.net.xml"/>
    </input>

    <output>
        <opendrive-output value="opendrive_simple_map.xodr"/>
    </output>

    <processing>
        <geometry.min-radius.fix.railways value="false"/>
        <geometry.max-grade.fix value="false"/>
        <offset.disable-normalization value="true"/>
        <lefthand value="0"/>
    </processing>

    <junctions>
        <no-turnarounds value="true"/>
        <junctions.corner-detail value="5"/>
        <junctions.limit-turn-speed value="5.50"/>
    </junctions>

    <pedestrian>
        <walkingareas value="0"/>
    </pedestrian>

</netconvertConfiguration>
-->

<OpenDRIVE>
    <header revMajor="1" revMinor="4" name="" version="1.00" date="Sat Dec 14 13:18:52 2024" north="57.12" south="-43.18" east="33.54" west="-87.54"/>
    <road name="" length="28.31853671" id="130" junction="-1">
        <link>
            <predecessor elementType="junction" elementId="1"/>
            <successor elementType="junction" elementId="2"/>
        </link>
        <type s="0" type="town"/>
        <planView>
            <geometry s="0.00000000" x="-71.65831540" y="-17.84691682" hdg="2.27227171" length="28.31853671">
                <line/>
            </geometry>
        </planView>
        <elevationProfile>
            <elevation s="0" a="0.00" b="0" c="0" d="0"/>
        </elevationProfile>
        <lateralProfile/>
        <lanes>
            <laneSection s="0">
                <center>
                    <lane id="0" type="none" level="true">
                        <link/>
                        <roadMark sOffset="0" type="solid" weight="standard" color="standard" width="0.13"/>
                    </lane>
                </center>
                <right>
                    <lane id="-1" type="driving" level="true">
                        <link/>
                        <width sOffset="0" a="3.20" b="0" c="0" d="0"/>
                        <roadMark sOffset="0" type="broken" weight="standard" color="standard" width="0.13"/>
                        <speed sOffset="0" max="50.00"/>
                    </lane>
                    <lane id="-2" type="driving" level="true">
                        <link/>
                        <width sOffset="0" a="3.20" b="0" c="0" d="0"/>
                        <roadMark sOffset="0" type="broken" weight="standard" color="standard" width="0.13"/>
                        <speed sOffset="0" max="50.00"/>
                    </lane>
                    <lane id="-3" type="driving" level="true">
                        <link/>
                        <width sOffset="0" a="3.20" b="0" c="0" d="0"/>
                        <roadMark sOffset="0" type="solid" weight="standard" color="standard" width="0.13"/>
                        <speed sOffset="0" max="50.00"/>
                    </lane>
                 </right>
            </laneSection>
        </lanes>
        <objects/>
        <signals/>
    </road>
    <road name="" length="29.85606806" id="131" junction="-1">
        <link>
            <predecessor elementType="junction" elementId="2"/>
            <successor elementType="junction" elementId="3"/>
        </link>
        <type s="0" type="town"/>
        <planView>
            <geometry s="0.00000000" x="-92.17069551" y="10.73275685" hdg="1.49237373" length="29.85606806">
                <line/>
            </geometry>
        </planView>
        <elevationProfile>
            <elevation s="0" a="0.00" b="0" c="0" d="0"/>
        </elevationProfile>
        <lateralProfile/>
        <lanes>
            <laneSection s="0">
                <center>
                    <lane id="0" type="none" level="true">
                        <link/>
                        <roadMark sOffset="0" type="solid" weight="standard" color="standard" width="0.13"/>
                    </lane>
                </center>
                <right>
                    <lane id="-1" type="driving" level="true">
                        <link/>
                        <width sOffset="0" a="3.20" b="0" c="0" d="0"/>
                        <roadMark sOffset="0" type="broken" weight="standard" color="standard" width="0.13"/>
                        <speed sOffset="0" max="50.00"/>
                    </lane>
                    <lane id="-2" type="driving" level="true">
                        <link/>
                        <width sOffset="0" a="3.20" b="0" c="0" d="0"/>
                        <roadMark sOffset="0" type="broken" weight="standard" color="standard" width="0.13"/>
                        <speed sOffset="0" max="50.00"/>
                    </lane>
                    <lane id="-3" type="driving" level="true">
                        <link/>
                        <width sOffset="0" a="3.20" b="0" c="0" d="0"/>
                        <roadMark sOffset="0" type="solid" weight="standard" color="standard" width="0.13"/>
                        <speed sOffset="0" max="50.00"/>
                    </lane>
                 </right>
            </laneSection>
        </lanes>
        <objects/>
        <signals/>
    </road>
    <road name="" length="17.57998191" id="132" junction="-1">
        <link>
            <predecessor elementType="junction" elementId="4"/>
            <successor elementType="junction" elementId="1"/>
        </link>
        <type s="0" type="town"/>
        <planView>
            <geometry s="0.00000000" x="-73.31054301" y="-35.34908548" hdg="1.47667395" length="17.57998191">
                <line/>
            </geometry>
        </planView>
        <elevationProfile>
            <elevation s="0" a="0.00" b="0" c="0" d="0"/>
        </elevationProfile>
        <lateralProfile/>
        <lanes>
            <laneSection s="0">
                <center>
                    <lane id="0" type="none" level="true">
                        <link/>
                        <roadMark sOffset="0" type="solid" weight="standard" color="standard" width="0.13"/>
                    </lane>
                </center>
                <right>
                    <lane id="-1" type="driving" level="true">
                        <link/>
                        <width sOffset="0" a="3.20" b="0" c="0" d="0"/>
                        <roadMark sOffset="0" type="broken" weight="standard" color="standard" width="0.13"/>
                        <speed sOffset="0" max="50.00"/>
                    </lane>
                    <lane id="-2" type="driving" level="true">
                        <link/>
                        <width sOffset="0" a="3.20" b="0" c="0" d="0"/>
                        <roadMark sOffset="0" type="broken" weight="standard" color="standard" width="0.13"/>
                        <speed sOffset="0" max="50.00"/>
                    </lane>
                    <lane id="-3" type="driving" level="true">
                        <link/>
                        <width sOffset="0" a="3.20" b="0" c="0" d="0"/>
                        <roadMark sOffset="0" type="solid" weight="standard" color="standard" width="0.13"/>
                        <speed sOffset="0" max="50.00"/>
                    </lane>
                 </right>
            </laneSection>
        </lanes>
        <objects/>
        <signals>
            <signal id="J0_0" s="17.57998191" t="-8.00000000" orientation="+" dynamic="yes" zOffset="5" country="OpenDRIVE" type="1000011" subtype="10" height="0.78000000" width="0.26000000">
                <validity fromLane="-3" toLane="-3"/>
            </signal>
            <signal id="J0_1" s="17.57998191" t="-4.80000000" orientation="+" dynamic="yes" zOffset="5" country="OpenDRIVE" type="1000011" subtype="10" height="0.78000000" width="0.26000000">
                <validity fromLane="-2" toLane="-2"/>
            </signal>
            <signal id="J0_2" s="17.57998191" t="-1.60000000" orientation="+" dynamic="yes" zOffset="5" country="OpenDRIVE" type="1000011" subtype="10" height="0.78000000" width="0.26000000">
                <validity fromLane="-1" toLane="-1"/>
            </signal>
        </signals>
    </road>
    <road name="" length="58.24926437" id="133" junction="-1">
        <type s="0" type="town"/>
        <planView>
            <geometry s="0.00000000" x="-22.24000000" y="9.79000000" hdg="-0.29221320" length="58.24926437">
                <line/>
            </geometry>
        </planView>
        <elevationProfile>
            <elevation s="0" a="0.00" b="0" c="0" d="0"/>
        </elevationProfile>
        <lateralProfile/>
        <lanes>
            <laneSection s="0">
                <center>
                    <lane id="0" type="none" level="true">
                        <link/>
                        <roadMark sOffset="0" type="solid" weight="standard" color="standard" width="0.13"/>
                    </lane>
                </center>
                <right>
                    <lane id="-1" type="driving" level="true">
                        <link/>
                        <width sOffset="0" a="3.20" b="0" c="0" d="0"/>
                        <roadMark sOffset="0" type="solid" weight="standard" color="standard" width="0.13"/>
                        <speed sOffset="0" max="13.89"/>
                    </lane>
                    <lane id="-2" type="sidewalk" level="true">
                        <link/>
                        <width sOffset="0" a="2.00" b="0" c="0" d="0"/>
                        <roadMark sOffset="0" type="solid" weight="standard" color="standard" width="0.13"/>
                        <speed sOffset="0" max="13.89"/>
                    </lane>
                 </right>
            </laneSection>
        </lanes>
        <objects/>
        <signals/>
    </road>
    <road name="" length="47.48008168" id="134" junction="-1">
        <link>
            <predecessor elementType="junction" elementId="5"/>
            <successor elementType="junction" elementId="6"/>
        </link>
        <type s="0" type="town"/>
        <planView>
            <geometry s="0.00000000" x="-59.38918109" y="57.35093494" hdg="-0.02162141" length="26.79572404">
                <line/>
            </geometry>
            <geometry s="26.79572404" x="-32.59972011" y="56.77161873" hdg="-0.02162141" length="1.99999998">
                <paramPoly3 aU="0.00000000" bU="1.49999998" cU="1.49999998" dU="-1.00000001" aV="0.00000000" bV="0.00000000" cV="0.00048531" dV="-0.00016177" pRange="normalized"/>
            </geometry>
            <geometry s="28.79572402" x="-30.60018063" y="56.72870275" hdg="-0.02129787" length="18.68435766">
                <line/>
            </geometry>
        </planView>
        <elevationProfile>
            <elevation s="0" a="0.00" b="0" c="0" d="0"/>
        </elevationProfile>
        <lateralProfile/>
        <lanes>
            <laneSection s="0">
                <center>
                    <lane id="0" type="none" level="true">
                        <link/>
                        <roadMark sOffset="0" type="solid" weight="standard" color="standard" width="0.13"/>
                    </lane>
                </center>
                <right>
                    <lane id="-1" type="driving" level="true">
                        <link/>
                        <width sOffset="0" a="3.20" b="0" c="0" d="0"/>
                        <roadMark sOffset="0" type="broken" weight="standard" color="standard" width="0.13"/>
                        <speed sOffset="0" max="2.00"/>
                    </lane>
                    <lane id="-2" type="driving" level="true">
                        <link/>
                        <width sOffset="0" a="3.20" b="0" c="0" d="0"/>
                        <roadMark sOffset="0" type="broken" weight="standard" color="standard" width="0.13"/>
                        <speed sOffset="0" max="2.00"/>
                    </lane>
                    <lane id="-3" type="driving" level="true">
                        <link/>
                        <width sOffset="0" a="3.20" b="0" c="0" d="0"/>
                        <roadMark sOffset="0" type="solid" weight="standard" color="standard" width="0.13"/>
                        <speed sOffset="0" max="2.00"/>
                    </lane>
                 </right>
            </laneSection>
        </lanes>
        <objects/>
        <signals/>
    </road>
    <road name="" length="22.16194909" id="135" junction="-1">
        <link>
            <predecessor elementType="junction" elementId="3"/>
            <successor elementType="junction" elementId="5"/>
        </link>
        <type s="0" type="town"/>
        <planView>
            <geometry s="0.00000000" x="-83.73016138" y="48.69631113" hdg="0.36971439" length="22.16194909">
                <line/>
            </geometry>
        </planView>
        <elevationProfile>
            <elevation s="0" a="0.00" b="0" c="0" d="0"/>
        </elevationProfile>
        <lateralProfile/>
        <lanes>
            <laneSection s="0">
                <center>
                    <lane id="0" type="none" level="true">
                        <link/>
                        <roadMark sOffset="0" type="solid" weight="standard" color="standard" width="0.13"/>
                    </lane>
                </center>
                <right>
                    <lane id="-1" type="driving" level="true">
                        <link/>
                        <width sOffset="0" a="3.20" b="0" c="0" d="0"/>
                        <roadMark sOffset="0" type="broken" weight="standard" color="standard" width="0.13"/>
                        <speed sOffset="0" max="50.00"/>
                    </lane>
                    <lane id="-2" type="driving" level="true">
                        <link/>
                        <width sOffset="0" a="3.20" b="0" c="0" d="0"/>
                        <roadMark sOffset="0" type="broken" weight="standard" color="standard" width="0.13"/>
                        <speed sOffset="0" max="50.00"/>
                    </lane>
                    <lane id="-3" type="driving" level="true">
                        <link/>
                        <width sOffset="0" a="3.20" b="0" c="0" d="0"/>
                        <roadMark sOffset="0" type="solid" weight="standard" color="standard" width="0.13"/>
                        <speed sOffset="0" max="50.00"/>
                    </lane>
                 </right>
            </laneSection>
        </lanes>
        <objects/>
        <signals/>
    </road>
    <road name="" length="29.27331725" id="136" junction="-1">
        <link>
            <predecessor elementType="junction" elementId="6"/>
            <successor elementType="junction" elementId="7"/>
        </link>
        <type s="0" type="town"/>
        <planView>
            <geometry s="0.00000000" x="-4.92318959" y="53.08128476" hdg="-0.84826919" length="29.27331725">
                <line/>
            </geometry>
        </planView>
        <elevationProfile>
            <elevation s="0" a="0.00" b="0" c="0" d="0"/>
        </elevationProfile>
        <lateralProfile/>
        <lanes>
            <laneSection s="0">
                <center>
                    <lane id="0" type="none" level="true">
                        <link/>
                        <roadMark sOffset="0" type="solid" weight="standard" color="standard" width="0.13"/>
                    </lane>
                </center>
                <right>
                    <lane id="-1" type="driving" level="true">
                        <link/>
                        <width sOffset="0" a="3.20" b="0" c="0" d="0"/>
                        <roadMark sOffset="0" type="broken" weight="standard" color="standard" width="0.13"/>
                        <speed sOffset="0" max="50.00"/>
                    </lane>
                    <lane id="-2" type="driving" level="true">
                        <link/>
                        <width sOffset="0" a="3.20" b="0" c="0" d="0"/>
                        <roadMark sOffset="0" type="broken" weight="standard" color="standard" width="0.13"/>
                        <speed sOffset="0" max="50.00"/>
                    </lane>
                    <lane id="-3" type="driving" level="true">
                        <link/>
                        <width sOffset="0" a="3.20" b="0" c="0" d="0"/>
                        <roadMark sOffset="0" type="solid" weight="standard" color="standard" width="0.13"/>
                        <speed sOffset="0" max="50.00"/>
                    </lane>
                 </right>
            </laneSection>
        </lanes>
        <objects/>
        <signals/>
    </road>
    <road name="" length="27.69485249" id="137" junction="-1">
        <link>
            <predecessor elementType="junction" elementId="7"/>
            <successor elementType="junction" elementId="8"/>
        </link>
        <type s="0" type="town"/>
        <planView>
            <geometry s="0.00000000" x="16.02388145" y="20.91548907" hdg="-1.98441519" length="27.69485249">
                <line/>
            </geometry>
        </planView>
        <elevationProfile>
            <elevation s="0" a="0.00" b="0" c="0" d="0"/>
        </elevationProfile>
        <lateralProfile/>
        <lanes>
            <laneSection s="0">
                <center>
                    <lane id="0" type="none" level="true">
                        <link/>
                        <roadMark sOffset="0" type="solid" weight="standard" color="standard" width="0.13"/>
                    </lane>
                </center>
                <right>
                    <lane id="-1" type="driving" level="true">
                        <link/>
                        <width sOffset="0" a="3.20" b="0" c="0" d="0"/>
                        <roadMark sOffset="0" type="broken" weight="standard" color="standard" width="0.13"/>
                        <speed sOffset="0" max="50.00"/>
                    </lane>
                    <lane id="-2" type="driving" level="true">
                        <link/>
                        <width sOffset="0" a="3.20" b="0" c="0" d="0"/>
                        <roadMark sOffset="0" type="broken" weight="standard" color="standard" width="0.13"/>
                        <speed sOffset="0" max="50.00"/>
                    </lane>
                    <lane id="-3" type="driving" level="true">
                        <link/>
                        <width sOffset="0" a="3.20" b="0" c="0" d="0"/>
                        <roadMark sOffset="0" type="solid" weight="standard" color="standard" width="0.13"/>
                        <speed sOffset="0" max="50.00"/>
                    </lane>
                 </right>
            </laneSection>
        </lanes>
        <objects/>
        <signals>
            <signal id="J6_0" s="27.69485249" t="-8.00000000" orientation="+" dynamic="yes" zOffset="5" country="OpenDRIVE" type="1000011" subtype="30" height="0.78000000" width="0.26000000">
                <validity fromLane="-3" toLane="-3"/>
            </signal>
            <signal id="J6_1" s="27.69485249" t="-4.80000000" orientation="+" dynamic="yes" zOffset="5" country="OpenDRIVE" type="1000011" subtype="30" height="0.78000000" width="0.26000000">
                <validity fromLane="-2" toLane="-2"/>
            </signal>
            <signal id="J6_2" s="27.69485249" t="-1.60000000" orientation="+" dynamic="yes" zOffset="5" country="OpenDRIVE" type="1000011" subtype="30" height="0.78000000" width="0.26000000">
                <validity fromLane="-1" toLane="-1"/>
            </signal>
        </signals>
    </road>
    <road name="" length="15.51860204" id="138" junction="-1">
        <link>
            <predecessor elementType="junction" elementId="8"/>
            <successor elementType="junction" elementId="9"/>
        </link>
        <type s="0" type="town"/>
        <planView>
            <geometry s="0.00000000" x="2.65222349" y="-7.60373967" hdg="-2.39069030" length="15.51860204">
                <line/>
            </geometry>
        </planView>
        <elevationProfile>
            <elevation s="0" a="0.00" b="0" c="0" d="0"/>
        </elevationProfile>
        <lateralProfile/>
        <lanes>
            <laneSection s="0">
                <center>
                    <lane id="0" type="none" level="true">
                        <link/>
                        <roadMark sOffset="0" type="solid" weight="standard" color="standard" width="0.13"/>
                    </lane>
                </center>
                <right>
                    <lane id="-1" type="driving" level="true">
                        <link/>
                        <width sOffset="0" a="3.20" b="0" c="0" d="0"/>
                        <roadMark sOffset="0" type="broken" weight="standard" color="standard" width="0.13"/>
                        <speed sOffset="0" max="50.00"/>
                    </lane>
                    <lane id="-2" type="driving" level="true">
                        <link/>
                        <width sOffset="0" a="3.20" b="0" c="0" d="0"/>
                        <roadMark sOffset="0" type="broken" weight="standard" color="standard" width="0.13"/>
                        <speed sOffset="0" max="50.00"/>
                    </lane>
                    <lane id="-3" type="driving" level="true">
                        <link/>
                        <width sOffset="0" a="3.20" b="0" c="0" d="0"/>
                        <roadMark sOffset="0" type="solid" weight="standard" color="standard" width="0.13"/>
                        <speed sOffset="0" max="50.00"/>
                    </lane>
                 </right>
            </laneSection>
        </lanes>
        <objects/>
        <signals/>
    </road>
    <road name="" length="15.62010464" id="139" junction="-1">
        <link>
            <predecessor elementType="junction" elementId="9"/>
            <successor elementType="junction" elementId="10"/>
        </link>
        <type s="0" type="town"/>
        <planView>
            <geometry s="0.00000000" x="-8.69301510" y="-18.19206204" hdg="-1.69521519" length="15.62010464">
                <line/>
            </geometry>
        </planView>
        <elevationProfile>
            <elevation s="0" a="0.00" b="0" c="0" d="0"/>
        </elevationProfile>
        <lateralProfile/>
        <lanes>
            <laneSection s="0">
                <center>
                    <lane id="0" type="none" level="true">
                        <link/>
                        <roadMark sOffset="0" type="solid" weight="standard" color="standard" width="0.13"/>
                    </lane>
                </center>
                <right>
                    <lane id="-1" type="driving" level="true">
                        <link/>
                        <width sOffset="0" a="3.20" b="0" c="0" d="0"/>
                        <roadMark sOffset="0" type="broken" weight="standard" color="standard" width="0.13"/>
                        <speed sOffset="0" max="50.00"/>
                    </lane>
                    <lane id="-2" type="driving" level="true">
                        <link/>
                        <width sOffset="0" a="3.20" b="0" c="0" d="0"/>
                        <roadMark sOffset="0" type="broken" weight="standard" color="standard" width="0.13"/>
                        <speed sOffset="0" max="50.00"/>
                    </lane>
                    <lane id="-3" type="driving" level="true">
                        <link/>
                        <width sOffset="0" a="3.20" b="0" c="0" d="0"/>
                        <roadMark sOffset="0" type="solid" weight="standard" color="standard" width="0.13"/>
                        <speed sOffset="0" max="50.00"/>
                    </lane>
                 </right>
            </laneSection>
        </lanes>
        <objects/>
        <signals/>
    </road>
    <road name="" length="9.75256168" id="140" junction="-1">
        <link>
            <predecessor elementType="junction" elementId="10"/>
            <successor elementType="junction" elementId="11"/>
        </link>
        <type s="0" type="town"/>
        <planView>
            <geometry s="0.00000000" x="-14.45865369" y="-40.22576537" hdg="-2.50606539" length="9.75256168">
                <line/>
            </geometry>
        </planView>
        <elevationProfile>
            <elevation s="0" a="0.00" b="0" c="0" d="0"/>
        </elevationProfile>
        <lateralProfile/>
        <lanes>
            <laneSection s="0">
                <center>
                    <lane id="0" type="none" level="true">
                        <link/>
                        <roadMark sOffset="0" type="solid" weight="standard" color="standard" width="0.13"/>
                    </lane>
                </center>
                <right>
                    <lane id="-1" type="driving" level="true">
                        <link/>
                        <width sOffset="0" a="3.20" b="0" c="0" d="0"/>
                        <roadMark sOffset="0" type="broken" weight="standard" color="standard" width="0.13"/>
                        <speed sOffset="0" max="50.00"/>
                    </lane>
                    <lane id="-2" type="driving" level="true">
                        <link/>
                        <width sOffset="0" a="3.20" b="0" c="0" d="0"/>
                        <roadMark sOffset="0" type="broken" weight="standard" color="standard" width="0.13"/>
                        <speed sOffset="0" max="50.00"/>
                    </lane>
                    <lane id="-3" type="driving" level="true">
                        <link/>
                        <width sOffset="0" a="3.20" b="0" c="0" d="0"/>
                        <roadMark sOffset="0" type="solid" weight="standard" color="standard" width="0.13"/>
                        <speed sOffset="0" max="50.00"/>
                    </lane>
                 </right>
            </laneSection>
        </lanes>
        <objects/>
        <signals/>
    </road>
    <road name="" length="35.80538401" id="141" junction="-1">
        <link>
            <predecessor elementType="junction" elementId="11"/>
            <successor elementType="junction" elementId="4"/>
        </link>
        <type s="0" type="town"/>
        <planView>
            <geometry s="0.00000000" x="-28.55208417" y="-47.87365822" hdg="3.08464605" length="35.80538401">
                <line/>
            </geometry>
        </planView>
        <elevationProfile>
            <elevation s="0" a="0.00" b="0" c="0" d="0"/>
        </elevationProfile>
        <lateralProfile/>
        <lanes>
            <laneSection s="0">
                <center>
                    <lane id="0" type="none" level="true">
                        <link/>
                        <roadMark sOffset="0" type="solid" weight="standard" color="standard" width="0.13"/>
                    </lane>
                </center>
                <right>
                    <lane id="-1" type="driving" level="true">
                        <link/>
                        <width sOffset="0" a="3.20" b="0" c="0" d="0"/>
                        <roadMark sOffset="0" type="broken" weight="standard" color="standard" width="0.13"/>
                        <speed sOffset="0" max="50.00"/>
                    </lane>
                    <lane id="-2" type="driving" level="true">
                        <link/>
                        <width sOffset="0" a="3.20" b="0" c="0" d="0"/>
                        <roadMark sOffset="0" type="broken" weight="standard" color="standard" width="0.13"/>
                        <speed sOffset="0" max="50.00"/>
                    </lane>
                    <lane id="-3" type="driving" level="true">
                        <link/>
                        <width sOffset="0" a="3.20" b="0" c="0" d="0"/>
                        <roadMark sOffset="0" type="solid" weight="standard" color="standard" width="0.13"/>
                        <speed sOffset="0" max="50.00"/>
                    </lane>
                 </right>
            </laneSection>
        </lanes>
        <objects/>
        <signals/>
    </road>

    <road name=":J0_0" length="2.54988117" id="142" junction="1">
        <link>
            <predecessor elementType="road" elementId="132" contactPoint="end"/>
            <successor elementType="road" elementId="130" contactPoint="start"/>
        </link>
        <type s="0" type="town"/>
        <planView>
            <geometry s="0.00000000" x="-68.47247937" y="-18.14766391" hdg="1.47667395" length="2.54988117">
                <paramPoly3 aU="0.00000000" bU="2.68928670" cU="-0.40358405" dU="0.00000000" aV="0.00000000" bV="-0.00000000" cV="0.96045465" dV="0.00000000" pRange="normalized"/>
            </geometry>
        </planView>
        <elevationProfile>
            <elevation s="0" a="0.00" b="0" c="0" d="0"/>
        </elevationProfile>
        <lateralProfile/>
        <lanes>
            <laneOffset s="0" a="3.20" b="0" c="0" d="0"/>
            <laneSection s="0">
                <center>
                    <lane id="0" type="none" level="true">
                        <link/>
                        <roadMark sOffset="0" type="solid" weight="standard" color="standard" width="0.00"/>
                    </lane>
                </center>
                <right>
                    <lane id="-1" type="driving" level="true">
                        <link>
                            <predecessor id="-1"/>
                            <successor id="-1"/>
                        </link>
                        <width sOffset="0" a="3.20" b="0.00" c="0.00" d="0.00"/>